*SPEF "ieee 1481-1999"
*DESIGN "ALU"
*DATE "16:25:15 Tuesday February 11, 2025"
*VENDOR "The OpenROAD Project"
*PROGRAM "OpenROAD"
*VERSION "v2.0-18442-g19e09eea1"
*DESIGN_FLOW "NAME_SCOPE LOCAL" "PIN_CAP NONE"
*DIVIDER /
*DELIMITER :
*BUS_DELIMITER []
*T_UNIT 1 NS
*C_UNIT 1 PF
*R_UNIT 1 OHM
*L_UNIT 1 HENRY

*NAME_MAP
*1 A[0]
*2 A[1]
*3 A[2]
*4 A[3]
*5 B[0]
*6 B[1]
*7 B[2]
*8 B[3]
*9 _000_
*10 _001_
*11 _002_
*12 _003_
*13 _004_
*14 _005_
*15 _006_
*16 _007_
*17 _008_
*18 _009_
*19 _010_
*20 _011_
*21 _012_
*22 _013_
*23 _014_
*24 _015_
*25 _016_
*26 _017_
*27 _018_
*28 _019_
*29 _020_
*30 _021_
*31 _022_
*32 _023_
*33 _024_
*34 _025_
*35 _026_
*36 _027_
*37 _028_
*38 _029_
*39 _030_
*40 _031_
*41 _032_
*42 _033_
*43 _034_
*44 _035_
*45 _036_
*46 _037_
*47 _038_
*48 _039_
*49 _040_
*50 _041_
*51 _042_
*52 _043_
*53 _044_
*54 _045_
*55 _046_
*56 _047_
*57 _048_
*58 _049_
*59 _050_
*60 _051_
*61 _052_
*62 _053_
*63 _054_
*64 _055_
*65 _056_
*66 _057_
*67 _058_
*68 _059_
*69 _060_
*70 _061_
*71 _062_
*72 _063_
*73 _064_
*74 _065_
*75 _066_
*76 _067_
*77 _068_
*78 _069_
*79 _070_
*80 _071_
*81 _072_
*82 _073_
*83 _074_
*84 _075_
*85 _076_
*86 _077_
*87 _078_
*88 _079_
*89 _080_
*90 _081_
*91 _082_
*92 _083_
*93 _084_
*94 _085_
*95 _086_
*96 _087_
*97 _088_
*98 _089_
*99 _090_
*100 _091_
*101 _092_
*102 _093_
*103 _094_
*104 _095_
*105 _096_
*106 _097_
*107 _098_
*108 _099_
*109 _100_
*110 _101_
*111 _102_
*112 _103_
*113 _104_
*114 _105_
*115 _106_
*116 _107_
*117 _108_
*118 _109_
*119 _110_
*120 _111_
*121 _112_
*122 _113_
*123 _114_[0]
*124 _114_[1]
*125 _114_[2]
*126 _114_[3]
*127 carry_out
*128 clk
*129 opcode[0]
*130 opcode[1]
*131 opcode[2]
*132 result[0]
*133 result[1]
*134 result[2]
*135 result[3]
*138 clknet_0_clk
*139 clknet_1_0__leaf_clk
*140 clknet_1_1__leaf_clk
*141 _115_
*142 _116_
*143 _117_
*144 _118_
*145 _119_
*146 _120_
*147 _121_
*148 _122_
*149 _123_
*150 _124_
*151 _125_
*152 _126_
*153 _127_
*154 _128_
*155 _129_
*156 _130_
*157 _131_
*158 _132_
*159 _133_
*160 _134_
*161 _135_
*162 _136_
*163 _137_
*164 _138_
*165 _139_
*166 _140_
*167 _141_
*168 _142_
*169 _143_
*170 _144_
*171 _145_
*172 _146_
*173 _147_
*174 _148_
*175 _149_
*176 _150_
*177 _151_
*178 _152_
*179 _153_
*180 _154_
*181 _155_
*182 _156_
*183 _157_
*184 _158_
*185 _159_
*186 _160_
*187 _161_
*188 _162_
*189 _163_
*190 _164_
*191 _165_
*192 _166_
*193 _167_
*194 _168_
*195 _169_
*196 _170_
*197 _171_
*198 _172_
*199 _173_
*200 _174_
*201 _175_
*202 _176_
*203 _177_
*204 _178_
*205 _179_
*206 _180_
*207 _181_
*208 _182_
*209 _183_
*210 _184_
*211 _185_
*212 _186_
*213 _187_
*214 _188_
*215 _189_
*216 _190_
*217 _191_
*218 _192_
*219 _193_
*220 _194_
*221 _195_
*222 _196_
*223 _197_
*224 _198_
*225 _199_
*226 _200_
*227 _201_
*228 _202_
*229 _203_
*230 _204_
*231 _205_
*232 _206_
*233 _207_
*234 _208_
*235 _209_
*236 _210_
*237 _211_
*238 _212_
*239 _213_
*240 _214_
*241 _215_
*242 _216_
*243 _217_
*244 _218_
*245 _219_
*246 _220_
*247 _221_
*248 _222_
*249 _223_
*250 _224_
*251 _225_
*252 _226_
*253 _227_
*254 _228_
*255 _229_
*256 _230_
*257 _231_
*258 _232_
*259 _233_
*260 _234_
*261 _235_
*262 _236_
*263 _237_
*264 TAP_TAPCELL_ROW_0_0
*265 TAP_TAPCELL_ROW_0_1
*266 TAP_TAPCELL_ROW_0_2
*267 TAP_TAPCELL_ROW_0_3
*268 TAP_TAPCELL_ROW_1_4
*269 TAP_TAPCELL_ROW_1_5
*270 TAP_TAPCELL_ROW_2_6
*271 TAP_TAPCELL_ROW_2_7
*272 TAP_TAPCELL_ROW_3_8
*273 TAP_TAPCELL_ROW_3_9
*274 TAP_TAPCELL_ROW_4_10
*275 TAP_TAPCELL_ROW_4_11
*276 TAP_TAPCELL_ROW_5_12
*277 TAP_TAPCELL_ROW_5_13
*278 TAP_TAPCELL_ROW_6_14
*279 TAP_TAPCELL_ROW_6_15
*280 TAP_TAPCELL_ROW_7_16
*281 TAP_TAPCELL_ROW_7_17
*282 TAP_TAPCELL_ROW_8_18
*283 TAP_TAPCELL_ROW_8_19
*284 TAP_TAPCELL_ROW_9_20
*285 TAP_TAPCELL_ROW_9_21
*286 TAP_TAPCELL_ROW_10_22
*287 TAP_TAPCELL_ROW_10_23
*288 TAP_TAPCELL_ROW_11_24
*289 TAP_TAPCELL_ROW_11_25
*290 TAP_TAPCELL_ROW_12_26
*291 TAP_TAPCELL_ROW_12_27
*292 TAP_TAPCELL_ROW_13_28
*293 TAP_TAPCELL_ROW_13_29
*294 TAP_TAPCELL_ROW_14_30
*295 TAP_TAPCELL_ROW_14_31
*296 TAP_TAPCELL_ROW_15_32
*297 TAP_TAPCELL_ROW_15_33
*298 TAP_TAPCELL_ROW_16_34
*299 TAP_TAPCELL_ROW_16_35
*300 TAP_TAPCELL_ROW_17_36
*301 TAP_TAPCELL_ROW_17_37
*302 TAP_TAPCELL_ROW_18_38
*303 TAP_TAPCELL_ROW_18_39
*304 TAP_TAPCELL_ROW_19_40
*305 TAP_TAPCELL_ROW_19_41
*306 TAP_TAPCELL_ROW_20_42
*307 TAP_TAPCELL_ROW_20_43
*308 TAP_TAPCELL_ROW_20_44
*309 TAP_TAPCELL_ROW_20_45
*310 clkbuf_0_clk
*311 clkbuf_1_0__f_clk
*312 clkbuf_1_1__f_clk
*313 clkload0
*314 FILLER_0_0
*315 FILLER_0_8
*316 FILLER_0_16
*317 FILLER_0_24
*318 FILLER_0_28
*319 FILLER_0_31
*320 FILLER_0_39
*321 FILLER_0_47
*322 FILLER_0_55
*323 FILLER_0_59
*324 FILLER_0_61
*325 FILLER_0_69
*326 FILLER_0_77
*327 FILLER_0_85
*328 FILLER_0_89
*329 FILLER_0_91
*330 FILLER_0_99
*331 FILLER_0_107
*332 FILLER_0_115
*333 FILLER_0_119
*334 FILLER_0_121
*335 FILLER_1_0
*336 FILLER_1_8
*337 FILLER_1_16
*338 FILLER_1_36
*339 FILLER_1_56
*340 FILLER_1_61
*341 FILLER_1_69
*342 FILLER_1_77
*343 FILLER_1_85
*344 FILLER_1_93
*345 FILLER_1_101
*346 FILLER_1_109
*347 FILLER_1_117
*348 FILLER_1_119
*349 FILLER_1_121
*350 FILLER_2_0
*351 FILLER_2_8
*352 FILLER_2_16
*353 FILLER_2_24
*354 FILLER_2_28
*355 FILLER_2_31
*356 FILLER_2_39
*357 FILLER_2_46
*358 FILLER_2_55
*359 FILLER_2_63
*360 FILLER_2_71
*361 FILLER_2_79
*362 FILLER_2_87
*363 FILLER_2_89
*364 FILLER_2_91
*365 FILLER_2_99
*366 FILLER_2_107
*367 FILLER_2_115
*368 FILLER_2_123
*369 FILLER_3_0
*370 FILLER_3_8
*371 FILLER_3_16
*372 FILLER_3_21
*373 FILLER_3_33
*374 FILLER_3_42
*375 FILLER_3_46
*376 FILLER_3_48
*377 FILLER_3_53
*378 FILLER_3_57
*379 FILLER_3_59
*380 FILLER_3_61
*381 FILLER_3_69
*382 FILLER_3_77
*383 FILLER_3_81
*384 FILLER_3_89
*385 FILLER_3_97
*386 FILLER_3_105
*387 FILLER_3_113
*388 FILLER_3_117
*389 FILLER_3_119
*390 FILLER_3_121
*391 FILLER_4_0
*392 FILLER_4_8
*393 FILLER_4_16
*394 FILLER_4_20
*395 FILLER_4_24
*396 FILLER_4_28
*397 FILLER_4_31
*398 FILLER_4_39
*399 FILLER_4_45
*400 FILLER_4_53
*401 FILLER_4_62
*402 FILLER_4_70
*403 FILLER_4_78
*404 FILLER_4_86
*405 FILLER_4_91
*406 FILLER_4_98
*407 FILLER_4_102
*408 FILLER_4_108
*409 FILLER_4_115
*410 FILLER_4_123
*411 FILLER_5_0
*412 FILLER_5_8
*413 FILLER_5_10
*414 FILLER_5_15
*415 FILLER_5_23
*416 FILLER_5_31
*417 FILLER_5_39
*418 FILLER_5_47
*419 FILLER_5_56
*420 FILLER_5_61
*421 FILLER_5_68
*422 FILLER_5_72
*423 FILLER_5_74
*424 FILLER_5_78
*425 FILLER_5_89
*426 FILLER_5_97
*427 FILLER_5_99
*428 FILLER_5_116
*429 FILLER_5_121
*430 FILLER_6_0
*431 FILLER_6_8
*432 FILLER_6_12
*433 FILLER_6_21
*434 FILLER_6_29
*435 FILLER_6_31
*436 FILLER_6_39
*437 FILLER_6_45
*438 FILLER_6_53
*439 FILLER_6_63
*440 FILLER_6_67
*441 FILLER_6_74
*442 FILLER_6_85
*443 FILLER_6_89
*444 FILLER_6_91
*445 FILLER_6_106
*446 FILLER_6_114
*447 FILLER_6_122
*448 FILLER_6_124
*449 FILLER_7_0
*450 FILLER_7_8
*451 FILLER_7_13
*452 FILLER_7_22
*453 FILLER_7_29
*454 FILLER_7_33
*455 FILLER_7_39
*456 FILLER_7_49
*457 FILLER_7_57
*458 FILLER_7_59
*459 FILLER_7_61
*460 FILLER_7_68
*461 FILLER_7_84
*462 FILLER_7_95
*463 FILLER_7_103
*464 FILLER_7_112
*465 FILLER_7_121
*466 FILLER_8_0
*467 FILLER_8_8
*468 FILLER_8_12
*469 FILLER_8_14
*470 FILLER_8_18
*471 FILLER_8_26
*472 FILLER_8_31
*473 FILLER_8_39
*474 FILLER_8_43
*475 FILLER_8_52
*476 FILLER_8_62
*477 FILLER_8_71
*478 FILLER_8_79
*479 FILLER_8_87
*480 FILLER_8_89
*481 FILLER_8_91
*482 FILLER_8_99
*483 FILLER_8_105
*484 FILLER_8_113
*485 FILLER_8_120
*486 FILLER_8_124
*487 FILLER_9_0
*488 FILLER_9_8
*489 FILLER_9_23
*490 FILLER_9_31
*491 FILLER_9_35
*492 FILLER_9_37
*493 FILLER_9_42
*494 FILLER_9_53
*495 FILLER_9_57
*496 FILLER_9_59
*497 FILLER_9_61
*498 FILLER_9_70
*499 FILLER_9_78
*500 FILLER_9_84
*501 FILLER_9_91
*502 FILLER_9_99
*503 FILLER_9_108
*504 FILLER_9_116
*505 FILLER_9_121
*506 FILLER_10_0
*507 FILLER_10_2
*508 FILLER_10_6
*509 FILLER_10_18
*510 FILLER_10_26
*511 FILLER_10_31
*512 FILLER_10_39
*513 FILLER_10_47
*514 FILLER_10_55
*515 FILLER_10_59
*516 FILLER_10_61
*517 FILLER_10_67
*518 FILLER_10_76
*519 FILLER_10_83
*520 FILLER_10_87
*521 FILLER_10_89
*522 FILLER_10_91
*523 FILLER_10_103
*524 FILLER_10_114
*525 FILLER_10_122
*526 FILLER_10_124
*527 FILLER_11_0
*528 FILLER_11_8
*529 FILLER_11_17
*530 FILLER_11_27
*531 FILLER_11_36
*532 FILLER_11_44
*533 FILLER_11_50
*534 FILLER_11_58
*535 FILLER_11_61
*536 FILLER_11_71
*537 FILLER_11_78
*538 FILLER_11_82
*539 FILLER_11_84
*540 FILLER_11_91
*541 FILLER_11_95
*542 FILLER_11_103
*543 FILLER_11_110
*544 FILLER_11_118
*545 FILLER_11_121
*546 FILLER_12_0
*547 FILLER_12_8
*548 FILLER_12_18
*549 FILLER_12_26
*550 FILLER_12_31
*551 FILLER_12_41
*552 FILLER_12_49
*553 FILLER_12_51
*554 FILLER_12_56
*555 FILLER_12_63
*556 FILLER_12_71
*557 FILLER_12_75
*558 FILLER_12_82
*559 FILLER_12_91
*560 FILLER_12_100
*561 FILLER_12_108
*562 FILLER_12_116
*563 FILLER_12_124
*564 FILLER_13_0
*565 FILLER_13_11
*566 FILLER_13_22
*567 FILLER_13_30
*568 FILLER_13_32
*569 FILLER_13_39
*570 FILLER_13_47
*571 FILLER_13_49
*572 FILLER_13_56
*573 FILLER_13_61
*574 FILLER_13_72
*575 FILLER_13_80
*576 FILLER_13_84
*577 FILLER_13_106
*578 FILLER_13_114
*579 FILLER_13_118
*580 FILLER_13_121
*581 FILLER_14_0
*582 FILLER_14_8
*583 FILLER_14_16
*584 FILLER_14_18
*585 FILLER_14_26
*586 FILLER_14_31
*587 FILLER_14_39
*588 FILLER_14_48
*589 FILLER_14_52
*590 FILLER_14_60
*591 FILLER_14_68
*592 FILLER_14_70
*593 FILLER_14_75
*594 FILLER_14_83
*595 FILLER_14_87
*596 FILLER_14_89
*597 FILLER_14_91
*598 FILLER_14_102
*599 FILLER_14_110
*600 FILLER_14_118
*601 FILLER_14_122
*602 FILLER_14_124
*603 FILLER_15_0
*604 FILLER_15_8
*605 FILLER_15_16
*606 FILLER_15_24
*607 FILLER_15_32
*608 FILLER_15_34
*609 FILLER_15_38
*610 FILLER_15_46
*611 FILLER_15_56
*612 FILLER_15_61
*613 FILLER_15_68
*614 FILLER_15_76
*615 FILLER_15_84
*616 FILLER_15_88
*617 FILLER_15_90
*618 FILLER_15_94
*619 FILLER_15_101
*620 FILLER_15_109
*621 FILLER_15_117
*622 FILLER_15_119
*623 FILLER_15_121
*624 FILLER_16_0
*625 FILLER_16_8
*626 FILLER_16_16
*627 FILLER_16_24
*628 FILLER_16_28
*629 FILLER_16_31
*630 FILLER_16_39
*631 FILLER_16_43
*632 FILLER_16_45
*633 FILLER_16_50
*634 FILLER_16_59
*635 FILLER_16_66
*636 FILLER_16_74
*637 FILLER_16_85
*638 FILLER_16_89
*639 FILLER_16_91
*640 FILLER_16_99
*641 FILLER_16_107
*642 FILLER_16_115
*643 FILLER_16_123
*644 FILLER_17_0
*645 FILLER_17_8
*646 FILLER_17_16
*647 FILLER_17_24
*648 FILLER_17_32
*649 FILLER_17_36
*650 FILLER_17_45
*651 FILLER_17_56
*652 FILLER_17_61
*653 FILLER_17_69
*654 FILLER_17_77
*655 FILLER_17_86
*656 FILLER_17_93
*657 FILLER_17_101
*658 FILLER_17_109
*659 FILLER_17_117
*660 FILLER_17_119
*661 FILLER_17_121
*662 FILLER_18_0
*663 FILLER_18_8
*664 FILLER_18_16
*665 FILLER_18_24
*666 FILLER_18_28
*667 FILLER_18_31
*668 FILLER_18_51
*669 FILLER_18_55
*670 FILLER_18_64
*671 FILLER_18_75
*672 FILLER_18_86
*673 FILLER_18_91
*674 FILLER_18_99
*675 FILLER_18_107
*676 FILLER_18_115
*677 FILLER_18_123
*678 FILLER_19_0
*679 FILLER_19_8
*680 FILLER_19_16
*681 FILLER_19_24
*682 FILLER_19_28
*683 FILLER_19_45
*684 FILLER_19_56
*685 FILLER_19_61
*686 FILLER_19_68
*687 FILLER_19_76
*688 FILLER_19_85
*689 FILLER_19_92
*690 FILLER_19_100
*691 FILLER_19_108
*692 FILLER_19_116
*693 FILLER_19_121
*694 FILLER_20_0
*695 FILLER_20_8
*696 FILLER_20_16
*697 FILLER_20_24
*698 FILLER_20_28
*699 FILLER_20_31
*700 FILLER_20_39
*701 FILLER_20_47
*702 FILLER_20_55
*703 FILLER_20_59
*704 FILLER_20_61
*705 FILLER_20_68
*706 FILLER_20_76
*707 FILLER_20_81
*708 FILLER_20_89
*709 FILLER_20_91
*710 FILLER_20_99
*711 FILLER_20_107
*712 FILLER_20_115
*713 FILLER_20_119
*714 FILLER_20_121

*PORTS
A[0] I
A[1] I
A[2] I
A[3] I
B[0] I
B[1] I
B[2] I
B[3] I
carry_out O
clk I
opcode[0] I
opcode[1] I
opcode[2] I
result[0] O
result[1] O
result[2] O
result[3] O

*D_NET *1 0.0129503
*CONN
*P A[0] I
*I *214:B1 I *D sky130_fd_sc_hd__a22oi_1
*I *186:C1 I *D sky130_fd_sc_hd__o211ai_1
*I *199:B I *D sky130_fd_sc_hd__nor2_1
*I *161:B I *D sky130_fd_sc_hd__nor2_1
*I *211:A1 I *D sky130_fd_sc_hd__o22ai_1
*I *155:B I *D sky130_fd_sc_hd__nand3_1
*I *154:B I *D sky130_fd_sc_hd__nand2_1
*I *245:B I *D sky130_fd_sc_hd__nand2_1
*I *223:B I *D sky130_fd_sc_hd__nand2_1
*CAP
1 A[0] 0.000497619
2 *214:B1 0.000207518
3 *186:C1 0.000262627
4 *199:B 0
5 *161:B 9.72047e-05
6 *211:A1 0
7 *155:B 0.000715099
8 *154:B 0.000134902
9 *245:B 0
10 *223:B 0.000416717
11 *1:79 0.000228138
12 *1:73 0.000492982
13 *1:56 0.00128113
14 *1:52 0.000872126
15 *1:39 0.000527978
16 *1:30 0.000538741
17 *1:13 0.001258
18 *154:B *154:A 6.08467e-05
19 *154:B *167:B 4.31539e-05
20 *154:B *228:B 4.0752e-05
21 *154:B *5:32 0.000206718
22 *154:B *8:130 1.00766e-05
23 *154:B *52:98 4.38769e-05
24 *154:B *55:8 6.92705e-05
25 *155:B *207:A2 0.000107496
26 *155:B *207:B1 0.000107169
27 *155:B *212:B1 0.000141229
28 *155:B *255:B1 0
29 *155:B *105:14 7.45557e-05
30 *155:B *105:27 0.000112542
31 *155:B *106:35 0
32 *155:B *126:20 0.000336125
33 *155:B *138:8 0.000261314
34 *161:B *62:10 0.000111658
35 *186:C1 *186:A1 2.54243e-05
36 *186:C1 *186:B1 4.87439e-05
37 *186:C1 *197:B1 0.000110306
38 *186:C1 *2:46 0.00010886
39 *186:C1 *2:57 4.58907e-05
40 *214:B1 *167:C 1.41976e-05
41 *214:B1 *214:A2 0.000178017
42 *214:B1 *214:B2 2.15409e-05
43 *214:B1 *5:62 8.72964e-05
44 *214:B1 *6:112 0.000712014
45 *223:B *223:A 0.000110458
46 *223:B *226:B 2.58616e-05
47 *223:B *248:B 4.89251e-05
48 *223:B *3:98 5.51483e-06
49 *223:B *3:111 0.000156665
50 *1:13 *248:B 3.31745e-05
51 *1:13 *4:11 0.000217017
52 *1:13 *4:26 0.000134367
53 *1:30 *247:A 7.32576e-05
54 *1:30 *248:A 8.61152e-06
55 *1:30 *249:A 5.53934e-05
56 *1:30 *249:B 0.000121019
57 *1:30 *4:26 0.00029413
58 *1:30 *8:145 6.46815e-05
59 *1:39 *167:B 2.16355e-05
60 *1:39 *245:A 4.76161e-06
61 *1:39 *247:A 3.14978e-05
62 *1:39 *8:130 2.7562e-05
63 *1:39 *8:145 0.000184509
64 *1:52 *167:B 0.000347134
65 *1:52 *5:32 2.91462e-05
66 *1:52 *52:98 3.87022e-06
67 *1:56 *167:A 5.18062e-06
68 *1:56 *167:B 5.23435e-05
69 *1:56 *171:A2 0
70 *1:56 *204:A1 4.01573e-05
71 *1:56 *204:A2 8.61022e-05
72 *1:56 *230:A 0
73 *1:56 *310:A 0
74 *1:56 *5:68 0
75 *1:56 *5:70 0
76 *1:56 *40:16 0
77 *1:56 *105:27 0
78 *1:73 *99:12 2.44599e-05
79 *1:79 *310:A 0
80 *1:79 *5:74 9.35698e-05
81 *1:79 *99:12 3.94515e-05
*RES
1 A[0] *1:13 18.8157 
2 *1:13 *223:B 19.9795 
3 *1:13 *1:30 20.6909 
4 *1:30 *245:B 9.24915 
5 *1:30 *1:39 6.84815 
6 *1:39 *154:B 14.4335 
7 *1:39 *1:52 10.8998 
8 *1:52 *1:56 15.0523 
9 *1:56 *155:B 42.1739 
10 *1:56 *1:73 2.38721 
11 *1:73 *1:79 12.9083 
12 *1:79 *211:A1 9.24915 
13 *1:79 *161:B 12.191 
14 *1:73 *199:B 9.24915 
15 *1:73 *186:C1 17.9299 
16 *1:52 *214:B1 23.9731 
*END

*D_NET *2 0.0175624
*CONN
*P A[1] I
*I *151:B I *D sky130_fd_sc_hd__nand2_2
*I *214:A1 I *D sky130_fd_sc_hd__a22oi_1
*I *220:A1 I *D sky130_fd_sc_hd__o221ai_1
*I *152:B I *D sky130_fd_sc_hd__nor2_1
*I *184:A I *D sky130_fd_sc_hd__xor2_1
*I *246:B I *D sky130_fd_sc_hd__nand2_1
*I *177:A I *D sky130_fd_sc_hd__nor2_1
*I *186:A2 I *D sky130_fd_sc_hd__o211ai_1
*I *160:A I *D sky130_fd_sc_hd__lpflow_isobufsrc_1
*CAP
1 A[1] 0.00037075
2 *151:B 0.000216875
3 *214:A1 0.00012752
4 *220:A1 0
5 *152:B 0
6 *184:A 0
7 *246:B 0.000739735
8 *177:A 0.000409207
9 *186:A2 0
10 *160:A 0
11 *2:124 0.00109165
12 *2:105 0.00104067
13 *2:57 0.00148554
14 *2:46 0.00110901
15 *2:38 0.001125
16 *2:26 0.000580694
17 *2:22 0.00110067
18 *2:9 0.000949897
19 *151:B *151:A 0.00012082
20 *151:B *215:B 1.90505e-05
21 *151:B *55:21 0.000379245
22 *177:A *178:A 6.50727e-05
23 *177:A *178:B 6.27718e-05
24 *177:A *186:A1 0.000160617
25 *177:A *77:12 2.48429e-05
26 *214:A1 *215:B 1.91246e-05
27 *214:A1 *239:A1 0.000216714
28 *246:B *171:A3 7.65861e-05
29 *246:B *172:A 7.3515e-05
30 *246:B *176:B1 0.000175028
31 *246:B *225:B 9.91185e-05
32 *246:B *246:A 4.65954e-06
33 *246:B *247:B 2.57847e-05
34 *246:B *3:131 1.00004e-05
35 *246:B *4:50 5.8318e-05
36 *246:B *6:95 0.000130033
37 *246:B *6:134 7.48792e-05
38 *246:B *7:94 1.19856e-05
39 *246:B *7:109 2.81046e-05
40 *246:B *7:119 0
41 *246:B *45:10 3.97254e-05
42 *246:B *70:36 0.000127179
43 *2:9 carry_out 0
44 *2:9 *141:A 6.50586e-05
45 *2:9 *259:D 0
46 *2:9 *6:7 0.000288075
47 *2:22 *141:A 7.68538e-06
48 *2:22 *160:SLEEP 2.65667e-05
49 *2:22 *221:C1 0.000105171
50 *2:22 *231:A 0.000303898
51 *2:22 *252:A 0
52 *2:22 *259:D 0
53 *2:22 *311:A 9.02566e-05
54 *2:22 *6:24 5.04829e-06
55 *2:22 *61:12 0.000101133
56 *2:22 *63:10 0.00013832
57 *2:22 *63:20 0.000142266
58 *2:22 *139:26 4.47877e-05
59 *2:26 *212:A2 0.00032057
60 *2:26 *52:43 5.97576e-05
61 *2:38 *152:A 0.000340616
62 *2:38 *196:B 0.000359298
63 *2:38 *202:A1 0
64 *2:38 *212:A2 2.14052e-05
65 *2:38 *62:10 0.000165909
66 *2:38 *102:26 0.000355485
67 *2:46 *184:B 0.000600586
68 *2:46 *197:B1 6.08467e-05
69 *2:46 *202:A1 5.73024e-05
70 *2:46 *5:74 7.71417e-05
71 *2:46 *62:10 0
72 *2:46 *84:12 6.67623e-06
73 *2:57 *172:A 4.28436e-05
74 *2:57 *186:A1 2.56351e-05
75 *2:57 *197:B1 6.3657e-05
76 *2:57 *6:95 5.12365e-05
77 *2:105 *212:B1 0.000287164
78 *2:105 *213:A2 0
79 *2:105 *220:B2 5.68225e-06
80 *2:105 *221:C1 0
81 *2:105 *311:A 0.000508706
82 *2:124 *155:A 0
83 *2:124 *212:B1 0.000132292
84 *2:124 *238:B1 0
85 *2:124 *311:A 0.000146519
86 *2:124 *312:A 3.3044e-05
87 *2:124 *55:33 1.6594e-05
88 *186:C1 *2:46 0.00010886
89 *186:C1 *2:57 4.58907e-05
*RES
1 A[1] *2:9 16.3131 
2 *2:9 *160:A 9.24915 
3 *2:9 *2:22 23.6871 
4 *2:22 *2:26 11.324 
5 *2:26 *2:38 21.723 
6 *2:38 *2:46 28.447 
7 *2:46 *186:A2 9.24915 
8 *2:46 *2:57 10.9376 
9 *2:57 *177:A 24.4795 
10 *2:57 *246:B 36.8182 
11 *2:38 *184:A 9.24915 
12 *2:26 *152:B 9.24915 
13 *2:22 *2:105 10.4546 
14 *2:105 *220:A1 13.7491 
15 *2:105 *2:124 8.91764 
16 *2:124 *214:A1 17.8141 
17 *2:124 *151:B 24.1406 
*END

*D_NET *3 0.0211687
*CONN
*P A[2] I
*I *225:A I *D sky130_fd_sc_hd__nand2_1
*I *169:B2 I *D sky130_fd_sc_hd__o221ai_4
*I *176:B1 I *D sky130_fd_sc_hd__o21ai_1
*I *224:A I *D sky130_fd_sc_hd__nand2_1
*I *234:A2 I *D sky130_fd_sc_hd__o21ai_0
*I *235:B2 I *D sky130_fd_sc_hd__o221ai_1
*I *149:B I *D sky130_fd_sc_hd__nand2_1
*I *150:B I *D sky130_fd_sc_hd__xnor2_1
*I *143:A I *D sky130_fd_sc_hd__inv_1
*CAP
1 A[2] 0.000709494
2 *225:A 3.84674e-05
3 *169:B2 0
4 *176:B1 0.00021808
5 *224:A 0.000120353
6 *234:A2 0
7 *235:B2 1.63938e-05
8 *149:B 0
9 *150:B 0.00123556
10 *143:A 1.23253e-05
11 *3:131 0.00163499
12 *3:111 0.00193509
13 *3:98 0.00193272
14 *3:35 0.00140843
15 *3:31 0.00070386
16 *3:25 0.000819728
17 *3:17 0.00133841
18 *3:13 0.00312054
19 *150:B *150:A 0.000165117
20 *150:B *164:A2 9.16123e-05
21 *150:B *237:A1 6.27718e-05
22 *150:B *237:B1 0.000133612
23 *150:B *240:A 0.000143094
24 *150:B *240:C 0.000201711
25 *150:B *253:B1 0.000165511
26 *150:B *48:25 0.00020794
27 *150:B *51:12 0.000305874
28 *176:B1 *171:A1 4.17399e-05
29 *176:B1 *171:A2 6.50586e-05
30 *176:B1 *171:B1 0.000118166
31 *176:B1 *172:A 0.000148129
32 *176:B1 *176:A2 0.000189865
33 *176:B1 *177:B 4.58003e-05
34 *176:B1 *4:50 2.3302e-05
35 *176:B1 *46:59 8.22828e-05
36 *176:B1 *72:12 0.000264586
37 *176:B1 *76:10 1.19856e-05
38 *224:A *223:A 2.24632e-05
39 *224:A *244:C 2.86829e-05
40 *224:A *5:32 3.21375e-05
41 *224:A *9:8 0.000143041
42 *235:B2 *235:A1 1.03434e-05
43 *3:13 *7:5 0.000228553
44 *3:17 *209:B 0
45 *3:17 *210:A 4.18989e-05
46 *3:17 *243:B1 4.3116e-06
47 *3:17 *257:A2 2.82537e-05
48 *3:17 *261:CLK 0
49 *3:17 *7:9 0
50 *3:17 *8:103 2.352e-05
51 *3:17 *8:118 5.62332e-05
52 *3:17 *37:14 0
53 *3:17 *108:10 0
54 *3:17 *109:10 9.24241e-05
55 *3:17 *131:54 0.000195124
56 *3:17 *131:67 0.000182915
57 *3:17 *131:92 5.0608e-05
58 *3:25 *210:A 0.000113374
59 *3:25 *235:A1 6.80895e-05
60 *3:25 *236:B1 6.12686e-06
61 *3:25 *37:14 0
62 *3:25 *48:12 1.90218e-05
63 *3:25 *106:31 7.92757e-06
64 *3:31 *7:15 0
65 *3:31 *7:17 0
66 *3:31 *47:12 0
67 *3:35 *7:17 0
68 *3:98 result[2] 6.50586e-05
69 *3:98 *223:A 5.04829e-06
70 *3:98 *226:A 1.41291e-05
71 *3:98 *226:B 0.000687228
72 *3:98 *261:D 8.61059e-05
73 *3:98 *121:10 0.000259225
74 *3:111 *223:A 4.47179e-05
75 *3:111 *248:B 0.000457558
76 *3:111 *249:B 0.000109427
77 *3:131 *225:B 6.23715e-06
78 *3:131 *4:50 1.91246e-05
79 *223:B *3:98 5.51483e-06
80 *223:B *3:111 0.000156665
81 *246:B *176:B1 0.000175028
82 *246:B *3:131 1.00004e-05
*RES
1 A[2] *3:13 16.0305 
2 *3:13 *3:17 33.7386 
3 *3:17 *3:25 9.71317 
4 *3:25 *3:31 16.8905 
5 *3:31 *3:35 8.40826 
6 *3:35 *143:A 9.56865 
7 *3:35 *150:B 44.7596 
8 *3:31 *149:B 13.7491 
9 *3:25 *235:B2 9.82786 
10 *3:17 *234:A2 13.7491 
11 *3:13 *3:98 26.8139 
12 *3:98 *224:A 22.1574 
13 *3:98 *3:111 13.4793 
14 *3:111 *3:131 15.8332 
15 *3:131 *176:B1 24.3984 
16 *3:131 *169:B2 13.7491 
17 *3:111 *225:A 10.2378 
*END

*D_NET *4 0.0224754
*CONN
*P A[3] I
*I *148:A I *D sky130_fd_sc_hd__nand2_1
*I *255:B2 I *D sky130_fd_sc_hd__o22ai_1
*I *254:A I *D sky130_fd_sc_hd__xnor2_1
*I *243:A1 I *D sky130_fd_sc_hd__o22ai_1
*I *242:A1 I *D sky130_fd_sc_hd__a21oi_1
*I *174:A I *D sky130_fd_sc_hd__maj3_1
*I *158:A1 I *D sky130_fd_sc_hd__a21oi_1
*I *159:A1 I *D sky130_fd_sc_hd__o21ai_0
*I *169:A1 I *D sky130_fd_sc_hd__o221ai_4
*I *171:A1 I *D sky130_fd_sc_hd__a31oi_1
*I *172:A I *D sky130_fd_sc_hd__nor2_1
*I *170:A I *D sky130_fd_sc_hd__and4_1
*I *168:A I *D sky130_fd_sc_hd__nand3_1
*I *166:A I *D sky130_fd_sc_hd__nand2_1
*CAP
1 A[3] 0.00032482
2 *148:A 0
3 *255:B2 0.000167024
4 *254:A 0.000400262
5 *243:A1 0
6 *242:A1 5.31246e-05
7 *174:A 0
8 *158:A1 0.000385041
9 *159:A1 0.000111154
10 *169:A1 0
11 *171:A1 0.000136978
12 *172:A 0.00118582
13 *170:A 0
14 *168:A 5.47546e-05
15 *166:A 9.7984e-05
16 *4:154 0.000567286
17 *4:120 0.000673895
18 *4:107 0.00117694
19 *4:105 0.000962319
20 *4:103 0.000418819
21 *4:97 0.000391336
22 *4:91 0.0012135
23 *4:65 0.000191478
24 *4:50 0.0013692
25 *4:39 0.000310503
26 *4:30 0.000427012
27 *4:26 0.00193966
28 *4:11 0.00106311
29 *158:A1 *158:B1 0.000122378
30 *158:A1 *175:A1 0.000543332
31 *159:A1 *263:D 0
32 *159:A1 *48:37 3.25751e-05
33 *166:A *5:11 6.46815e-05
34 *168:A *6:99 0.00016195
35 *171:A1 *171:A2 3.75603e-05
36 *171:A1 *171:B1 4.55099e-05
37 *171:A1 *176:A1 0
38 *171:A1 *45:16 0.000191541
39 *171:A1 *46:59 6.50727e-05
40 *172:A *172:B 1.07248e-05
41 *172:A *189:B1 0.000193344
42 *172:A *193:A1 0
43 *172:A *195:A1 0
44 *172:A *198:B1 0
45 *172:A *6:50 0
46 *172:A *6:80 0
47 *172:A *45:16 0.000348411
48 *172:A *76:10 0
49 *172:A *89:10 0
50 *172:A *89:16 0
51 *172:A *90:20 0
52 *172:A *93:10 0
53 *242:A1 *243:A2 0.00026468
54 *242:A1 *243:B2 0.000216396
55 *242:A1 *106:31 2.07365e-05
56 *242:A1 *124:10 6.50586e-05
57 *254:A *239:B1 6.27718e-05
58 *254:A *254:B 0.000217937
59 *255:B2 *239:B1 0.000395224
60 *255:B2 *255:A1 6.13051e-05
61 *4:11 *5:11 0
62 *4:39 *170:C 8.2722e-05
63 *4:39 *6:99 0.000315549
64 *4:50 *170:C 2.83665e-05
65 *4:50 *45:10 4.18989e-05
66 *4:50 *45:12 0.000111358
67 *4:50 *45:16 3.31882e-05
68 *4:65 *169:A2 6.08467e-05
69 *4:65 *169:C1 1.65872e-05
70 *4:91 *238:A2 0.000216961
71 *4:91 *239:A1 0.000357388
72 *4:91 *239:A2 1.88563e-05
73 *4:91 *255:A1 2.77625e-06
74 *4:91 *261:D 0.000359298
75 *4:91 *313:A 6.08467e-05
76 *4:97 *238:A1 0.000160135
77 *4:97 *255:A1 1.03403e-05
78 *4:97 *8:130 8.36586e-06
79 *4:97 *124:10 6.76691e-05
80 *4:103 *238:A1 0.000101516
81 *4:103 *238:B1 2.02035e-05
82 *4:103 *239:A2 0
83 *4:103 *258:B1 0.000125695
84 *4:103 *258:C1 0.000102359
85 *4:103 *124:10 0.000510873
86 *4:105 *243:A2 0.000280421
87 *4:105 *258:C1 2.71542e-05
88 *4:105 *37:14 1.99596e-06
89 *4:105 *124:10 0.000327431
90 *4:107 *174:C 0
91 *4:107 *175:B1 6.52099e-05
92 *4:107 *221:A1 0.000128264
93 *4:107 *236:B1 6.78595e-05
94 *4:107 *237:A2 4.9e-05
95 *4:107 *238:B1 2.18679e-05
96 *4:107 *243:A2 2.95757e-05
97 *4:107 *253:A2 0
98 *4:107 *8:41 0
99 *4:107 *37:14 0.000174267
100 *4:107 *48:37 0.000150444
101 *4:107 *48:53 0.00019144
102 *4:107 *58:10 0
103 *4:120 *175:A1 0.000276872
104 *4:120 *175:B2 7.40813e-05
105 *176:B1 *171:A1 4.17399e-05
106 *176:B1 *172:A 0.000148129
107 *176:B1 *4:50 2.3302e-05
108 *246:B *172:A 7.3515e-05
109 *246:B *4:50 5.8318e-05
110 *1:13 *4:11 0.000217017
111 *1:13 *4:26 0.000134367
112 *1:30 *4:26 0.00029413
113 *2:57 *172:A 4.28436e-05
114 *3:131 *4:50 1.91246e-05
*RES
1 A[3] *4:11 14.453 
2 *4:11 *166:A 11.6364 
3 *4:11 *4:26 21.3544 
4 *4:26 *4:30 8.82351 
5 *4:30 *168:A 11.0817 
6 *4:30 *4:39 5.71483 
7 *4:39 *170:A 9.24915 
8 *4:39 *4:50 8.7164 
9 *4:50 *172:A 44.5511 
10 *4:50 *4:65 5.778 
11 *4:65 *171:A1 23.0443 
12 *4:65 *169:A1 9.24915 
13 *4:26 *4:91 31.8685 
14 *4:91 *4:97 8.30115 
15 *4:97 *4:103 11.4561 
16 *4:103 *4:105 6.39977 
17 *4:105 *4:107 21.7641 
18 *4:107 *159:A1 16.4116 
19 *4:107 *4:120 9.66022 
20 *4:120 *158:A1 18.1951 
21 *4:120 *174:A 9.24915 
22 *4:105 *242:A1 17.2456 
23 *4:103 *243:A1 13.7491 
24 *4:97 *4:154 4.5 
25 *4:154 *254:A 18.7256 
26 *4:154 *255:B2 14.9881 
27 *4:91 *148:A 9.24915 
*END

*D_NET *5 0.011303
*CONN
*P B[0] I
*I *166:B I *D sky130_fd_sc_hd__nand2_1
*I *168:B I *D sky130_fd_sc_hd__nand3_1
*I *145:A I *D sky130_fd_sc_hd__clkinvlp_4
*I *199:A I *D sky130_fd_sc_hd__nor2_1
*I *183:A I *D sky130_fd_sc_hd__nand3_1
*I *155:A I *D sky130_fd_sc_hd__nand3_1
*I *214:A2 I *D sky130_fd_sc_hd__a22oi_1
*I *154:A I *D sky130_fd_sc_hd__nand2_1
*I *224:B I *D sky130_fd_sc_hd__nand2_1
*CAP
1 B[0] 0.000375106
2 *166:B 0
3 *168:B 4.59542e-05
4 *145:A 3.24796e-05
5 *199:A 0
6 *183:A 0.000273313
7 *155:A 0.00135954
8 *214:A2 0.000126862
9 *154:A 1.47608e-05
10 *224:B 0.000162598
11 *5:74 0.00186375
12 *5:70 0.000335268
13 *5:68 0.000449457
14 *5:62 0.000557776
15 *5:45 0.00055394
16 *5:32 0.000710142
17 *5:15 0.000834299
18 *5:11 0.000579291
19 *145:A *171:A2 5.04829e-06
20 *145:A *204:A1 4.89898e-06
21 *145:A *40:16 4.30017e-06
22 *154:A *52:98 6.08467e-05
23 *155:A *212:A1 0
24 *155:A *310:A 6.03237e-05
25 *155:A *126:20 7.08723e-06
26 *168:B *168:C 2.08274e-05
27 *168:B *6:99 0.000161956
28 *183:A *184:B 7.86825e-06
29 *183:A *197:B1 7.12632e-06
30 *5:32 *167:B 0.000118016
31 *5:32 *223:A 0.000361698
32 *5:32 *7:73 6.75696e-05
33 *5:32 *8:130 4.61271e-05
34 *5:32 *52:98 0.000125636
35 *5:45 *215:B 0
36 *5:45 *230:A 0.000213809
37 *5:45 *230:B 0.000158637
38 *5:45 *52:98 1.02917e-05
39 *5:62 *167:C 3.53989e-05
40 *5:62 *168:C 0.000173875
41 *5:62 *6:99 0.000274254
42 *5:62 *68:6 6.08467e-05
43 *5:68 *171:A2 0.000144546
44 *5:68 *204:A2 0
45 *5:68 *46:25 0
46 *5:68 *69:12 6.79396e-05
47 *5:70 *161:A 0
48 *5:70 *46:25 0
49 *5:74 *161:A 0
50 *5:74 *62:10 0
51 *154:B *154:A 6.08467e-05
52 *154:B *5:32 0.000206718
53 *166:A *5:11 6.46815e-05
54 *214:B1 *214:A2 0.000178017
55 *214:B1 *5:62 8.72964e-05
56 *224:A *5:32 3.21375e-05
57 *1:52 *5:32 2.91462e-05
58 *1:56 *5:68 0
59 *1:56 *5:70 0
60 *1:79 *5:74 9.35698e-05
61 *2:46 *5:74 7.71417e-05
62 *2:124 *155:A 0
63 *4:11 *5:11 0
*RES
1 B[0] *5:11 14.453 
2 *5:11 *5:15 5.18434 
3 *5:15 *224:B 12.7697 
4 *5:15 *5:32 24.431 
5 *5:32 *154:A 9.97254 
6 *5:32 *5:45 15.815 
7 *5:45 *214:A2 13.6377 
8 *5:45 *5:62 8.31905 
9 *5:62 *5:68 12.4631 
10 *5:68 *5:70 2.6625 
11 *5:70 *5:74 9.97618 
12 *5:74 *155:A 20.3001 
13 *5:74 *183:A 18.0054 
14 *5:70 *199:A 13.7491 
15 *5:68 *145:A 14.4725 
16 *5:62 *168:B 11.0817 
17 *5:11 *166:B 9.24915 
*END

*D_NET *6 0.0176799
*CONN
*P B[1] I
*I *225:B I *D sky130_fd_sc_hd__nand2_1
*I *144:A I *D sky130_fd_sc_hd__clkinv_1
*I *151:A I *D sky130_fd_sc_hd__nand2_2
*I *214:B2 I *D sky130_fd_sc_hd__a22oi_1
*I *167:C I *D sky130_fd_sc_hd__nor3_1
*I *179:A I *D sky130_fd_sc_hd__maj3_1
*I *201:A1 I *D sky130_fd_sc_hd__o21ba_1
*I *152:A I *D sky130_fd_sc_hd__nor2_1
*I *197:A1 I *D sky130_fd_sc_hd__o2111ai_1
*I *185:A I *D sky130_fd_sc_hd__nand2_1
*I *160:SLEEP I *D sky130_fd_sc_hd__lpflow_isobufsrc_1
*CAP
1 B[1] 0.00027729
2 *225:B 0.000572602
3 *144:A 0
4 *151:A 0.000216087
5 *214:B2 0.000136011
6 *167:C 3.03547e-05
7 *179:A 0.000170223
8 *201:A1 2.06324e-05
9 *152:A 0.000223755
10 *197:A1 0
11 *185:A 6.06482e-05
12 *160:SLEEP 1.26553e-05
13 *6:134 0.0007205
14 *6:112 0.000913183
15 *6:99 0.000913234
16 *6:95 0.000913897
17 *6:80 0.00110799
18 *6:58 0.000370406
19 *6:50 0.00100647
20 *6:39 0.000766835
21 *6:24 0.0013459
22 *6:7 0.00119524
23 *152:A *201:A2 6.08467e-05
24 *152:A *201:B1_N 0.000545304
25 *152:A *202:A3 7.64392e-05
26 *152:A *212:A2 2.41483e-05
27 *160:SLEEP *141:A 6.50586e-05
28 *179:A *189:B1 2.16355e-05
29 *185:A *185:B 2.10465e-05
30 *6:7 result[0] 0.000180795
31 *6:7 *139:26 6.69207e-05
32 *6:24 *141:A 0.00077492
33 *6:24 *162:B 9.0845e-05
34 *6:24 *185:B 0.000112361
35 *6:24 *196:A 5.38045e-05
36 *6:24 *217:A 3.6928e-05
37 *6:39 *185:B 0.000261135
38 *6:39 *197:A2 0.000251527
39 *6:39 *90:20 2.00542e-05
40 *6:50 *197:B1 0
41 *6:50 *202:B1 0.000113237
42 *6:50 *90:20 0.000165521
43 *6:50 *102:26 7.18555e-06
44 *6:58 *202:A2 9.33778e-05
45 *6:58 *202:A3 0.000152065
46 *6:58 *202:B2 0.00021218
47 *6:80 *189:B1 5.68043e-05
48 *6:95 *170:C 9.51594e-05
49 *6:95 *171:A3 8.37812e-05
50 *6:95 *46:59 4.03817e-05
51 *6:95 *46:83 6.29501e-05
52 *6:95 *70:36 0.000120052
53 *151:B *151:A 0.00012082
54 *168:A *6:99 0.00016195
55 *168:B *6:99 0.000161956
56 *172:A *6:50 0
57 *172:A *6:80 0
58 *214:B1 *167:C 1.41976e-05
59 *214:B1 *214:B2 2.15409e-05
60 *214:B1 *6:112 0.000712014
61 *246:B *225:B 9.91185e-05
62 *246:B *6:95 0.000130033
63 *246:B *6:134 7.48792e-05
64 *2:9 *6:7 0.000288075
65 *2:22 *160:SLEEP 2.65667e-05
66 *2:22 *6:24 5.04829e-06
67 *2:38 *152:A 0.000340616
68 *2:57 *6:95 5.12365e-05
69 *3:131 *225:B 6.23715e-06
70 *4:39 *6:99 0.000315549
71 *5:62 *167:C 3.53989e-05
72 *5:62 *6:99 0.000274254
*RES
1 B[1] *6:7 15.5897 
2 *6:7 *160:SLEEP 9.97254 
3 *6:7 *6:24 31.9546 
4 *6:24 *185:A 19.6659 
5 *6:24 *6:39 7.25807 
6 *6:39 *197:A1 9.24915 
7 *6:39 *6:50 13.5629 
8 *6:50 *6:58 9.85313 
9 *6:58 *152:A 18.8703 
10 *6:58 *201:A1 9.82786 
11 *6:50 *6:80 11.8713 
12 *6:80 *179:A 16.1364 
13 *6:80 *6:95 13.5323 
14 *6:95 *6:99 15.2063 
15 *6:99 *167:C 10.5513 
16 *6:99 *6:112 10.0311 
17 *6:112 *214:B2 11.9257 
18 *6:112 *151:A 23.8184 
19 *6:95 *6:134 4.32351 
20 *6:134 *144:A 13.7491 
21 *6:134 *225:B 27.8433 
*END

*D_NET *7 0.0254304
*CONN
*P B[2] I
*I *223:A I *D sky130_fd_sc_hd__nand2_1